Program Version,EnergyPlus, Version 23.1.0-87ed9199d4, YMD=2026.05.08 03:49,
   ************* Beginning Zone Sizing Calculations
   ** Warning ** Calculated design heating load for zone=DATACENTER ZN is zero.
   **   ~~~   ** Check Sizing:Zone and ZoneControl:Thermostat inputs.
   ************* Beginning System Sizing Calculations
   ************* Beginning Plant Sizing Calculations
   ************* Testing Individual Branch Integrity
   ************* All Branches passed integrity testing
   ************* Testing Individual Supply Air Path Integrity
   ************* All Supply Air Paths passed integrity testing
   ************* Testing Individual Return Air Path Integrity
   ************* All Return Air Paths passed integrity testing
   ************* No node connection errors were found.
   ************* Beginning Simulation
   ** Warning ** SimHVAC: Maximum iterations (50) exceeded for all HVAC loops, at RUN PERIOD 1, 02/01 00:45 - 01:00
   **   ~~~   ** The solution for one or more plant systems did not appear to converge
   **   ~~~   ** ...use Output:Diagnostics,DisplayExtraWarnings; to show more details on each max iteration exceeded.
   ** Warning ** SimHVAC: Maximum iterations (50) exceeded for all HVAC loops, at RUN PERIOD 1, 02/01 00:53 - 00:56
   **   ~~~   ** The solution for one or more plant systems did not appear to converge
   ** Warning ** CoolingTower:VariableSpeed "CENTRIFUGAL FAN CYCLING OPEN COOLING TOWER 40.2 GPM/HP" - Tower range temperature is outside model boundaries at 5.75E-002.
   **   ~~~   **  ...Valid range = 0.50 to 22.22. Occurrence info = RUN PERIOD 1, 02/01 01:30 - 01:32
   **   ~~~   **  ...Tower range temperature passed to the model = 5.74846E-002
   **   ~~~   **  ...Range temperatures outside model boundaries may not adversely affect tower performance.
   **   ~~~   **  ...This is not an unexpected occurrence when simulating actual conditions.
   ** Warning ** SimHVAC: Maximum iterations (50) exceeded for all HVAC loops, at RUN PERIOD 1, 03/07 00:41 - 00:45
   **   ~~~   ** The solution for one or more plant systems did not appear to converge
   ** Warning ** SimHVAC: Maximum iterations (50) exceeded for all HVAC loops, at RUN PERIOD 1, 03/17 00:56 - 01:00
   **   ~~~   ** The solution for one or more plant systems did not appear to converge
   ** Warning ** CoolingTower:VariableSpeed "CENTRIFUGAL FAN CYCLING OPEN COOLING TOWER 40.2 GPM/HP" - Cooling tower air flow rate ratio calculation failed
   **   ~~~   ** ...with conditions as Twb = 11.74, Trange =  1.33, Tapproach =  4.44, and water flow rate ratio =  1.61
   **   ~~~   ** ...a solution could not be found within the valid range of air flow rate ratios
   **   ~~~   **  ...Valid air flow rate ratio range =  0.20 to 1.0.
   **   ~~~   **  Environment=RUN PERIOD 1, at Simulation time=03/19 01:04 - 01:06
   **   ~~~   ** ...Consider modifying the design approach or design range temperature for this tower.
   ** Warning ** SimHVAC: Maximum iterations (50) exceeded for all HVAC loops, at RUN PERIOD 1, 03/22 00:45 - 01:00
   **   ~~~   ** The solution for one or more plant systems did not appear to converge
   ** Warning ** SimHVAC: Maximum iterations (50) exceeded for all HVAC loops, at RUN PERIOD 1, 03/22 00:49 - 00:52
   **   ~~~   ** The solution for one or more plant systems did not appear to converge
   ** Warning ** SimHVAC: Maximum iterations (50) exceeded for all HVAC loops, at RUN PERIOD 1, 04/14 00:56 - 01:00
   **   ~~~   ** The solution for one or more plant systems did not appear to converge
   ** Warning ** SimHVAC: Maximum iterations (50) exceeded for all HVAC loops, at RUN PERIOD 1, 04/28 00:30 - 00:45
   **   ~~~   ** The solution for one or more plant systems did not appear to converge
   ** Warning ** SimHVAC: Maximum iterations (50) exceeded for all HVAC loops, at RUN PERIOD 1, 04/28 00:30 - 00:32
   **   ~~~   ** The solution for one or more plant systems did not appear to converge
   ** Warning ** SimHVAC: Maximum iterations (50) exceeded for all HVAC loops, at RUN PERIOD 1, 04/28 00:38 - 00:39
   **   ~~~   ** The solution for one or more plant systems did not appear to converge
   ** Warning ** SimHVAC: Maximum iterations (50) exceeded for all HVAC loops, at RUN PERIOD 1, 11/07 00:45 - 01:00
   **   ~~~   ** The solution for one or more plant systems did not appear to converge
   ** Warning ** SimHVAC: Maximum iterations (50) exceeded for all HVAC loops, at RUN PERIOD 1, 11/07 00:50 - 00:55
   **   ~~~   ** The solution for one or more plant systems did not appear to converge
   ************* Simulation Error Summary *************
   ************* There are 7 unused schedules in input.
   ************* There are 7 unused week schedules in input.
   ************* There are 8 unused day schedules in input.
   ************* Use Output:Diagnostics,DisplayUnusedSchedules; to see them.
   *************
   ************* ===== Recurring Error Summary =====
   ************* The following recurring error messages occurred.
   *************
   *************  ** Warning ** CoolingTower:VariableSpeed "CENTRIFUGAL FAN CYCLING OPEN COOLING TOWER 40.2 GPM/HP" - Tower range temperature is out of range error continues...
   *************  **   ~~~   **   This error occurred 798 total times;
   *************  **   ~~~   **   during Warmup 0 times;
   *************  **   ~~~   **   during Sizing 0 times.
   *************  **   ~~~   **   Max=0.499984  Min=0.000164
   *************
   *************  ** Warning ** CoolingTower:VariableSpeed "CENTRIFUGAL FAN CYCLING OPEN COOLING TOWER 40.2 GPM/HP" - Cooling tower air flow rate ratio calculation failed error continues.
   *************  **   ~~~   **   This error occurred 1 total times;
   *************  **   ~~~   **   during Warmup 0 times;
   *************  **   ~~~   **   during Sizing 0 times.
   *************
   ************* EnergyPlus Warmup Error Summary. During Warmup: 0 Warning; 0 Severe Errors.
   ************* EnergyPlus Sizing Error Summary. During Sizing: 1 Warning; 0 Severe Errors.
   ************* EnergyPlus Completed Successfully-- 814 Warning; 0 Severe Errors; Elapsed Time=00hr 18min 58.23sec
