Program Version,EnergyPlus, Version 23.1.0-87ed9199d4, YMD=2026.05.13 21:42,
   ************* Beginning Zone Sizing Calculations
   ** Warning ** Weather file location will be used rather than entered (IDF) Location object.
   **   ~~~   ** ..Location object=NANJING JS CHN SRC-TMYX 582380
   **   ~~~   ** ..Weather File Location=Guangzhou GD CHN SRC-TMYx WMO#=592870
   **   ~~~   ** ..due to location differences, Latitude difference=[8.72] degrees, Longitude difference=[5.42] degrees.
   **   ~~~   ** ..Time Zone difference=[0.0] hour(s), Elevation difference=[2.01] percent, [0.30] meters.
   ** Warning ** Calculated design heating load for zone=DATACENTER ZN is zero.
   **   ~~~   ** Check Sizing:Zone and ZoneControl:Thermostat inputs.
   ************* Beginning System Sizing Calculations
   ************* Beginning Plant Sizing Calculations
   ************* Testing Individual Branch Integrity
   ************* All Branches passed integrity testing
   ************* Testing Individual Supply Air Path Integrity
   ************* All Supply Air Paths passed integrity testing
   ************* Testing Individual Return Air Path Integrity
   ************* All Return Air Paths passed integrity testing
   ************* No node connection errors were found.
   ************* Beginning Simulation
   ** Warning ** SimHVAC: Maximum iterations (50) exceeded for all HVAC loops, at RUN PERIOD 1, 01/17 15:15 - 15:30
   **   ~~~   ** The solution for one or more of the Air Loop HVAC systems did not appear to converge
   **   ~~~   ** ...use Output:Diagnostics,DisplayExtraWarnings; to show more details on each max iteration exceeded.
   ** Warning ** SimHVAC: Maximum iterations (50) exceeded for all HVAC loops, at RUN PERIOD 1, 01/17 15:15 - 15:20
   **   ~~~   ** The solution for one or more of the Air Loop HVAC systems did not appear to converge
   ** Warning ** SimHVAC: Maximum iterations (50) exceeded for all HVAC loops, at RUN PERIOD 1, 01/17 15:20 - 15:25
   **   ~~~   ** The solution for one or more of the Air Loop HVAC systems did not appear to converge
   ** Warning ** SimHVAC: Maximum iterations (50) exceeded for all HVAC loops, at RUN PERIOD 1, 01/17 15:25 - 15:30
   **   ~~~   ** The solution for one or more of the Air Loop HVAC systems did not appear to converge
   ** Warning ** SimHVAC: Maximum iterations (50) exceeded for all HVAC loops, at RUN PERIOD 1, 01/17 18:15 - 18:30
   **   ~~~   ** The solution for one or more of the Air Loop HVAC systems did not appear to converge
   ** Warning ** SimHVAC: Maximum iterations (50) exceeded for all HVAC loops, at RUN PERIOD 1, 01/17 18:15 - 18:22
   **   ~~~   ** The solution for one or more of the Air Loop HVAC systems did not appear to converge
   ** Warning ** SimHVAC: Maximum iterations (50) exceeded for all HVAC loops, at RUN PERIOD 1, 01/17 18:23 - 18:30
   **   ~~~   ** The solution for one or more of the Air Loop HVAC systems did not appear to converge
   ** Warning ** SimHVAC: Maximum iterations (50) exceeded for all HVAC loops, at RUN PERIOD 1, 01/17 18:30 - 18:45
   **   ~~~   ** The solution for one or more of the Air Loop HVAC systems did not appear to converge
   ** Warning ** SimHVAC: Maximum iterations (50) exceeded for all HVAC loops, at RUN PERIOD 1, 01/17 18:30 - 18:38
   **   ~~~   ** The solution for one or more of the Air Loop HVAC systems did not appear to converge
   ** Warning ** SimHVAC: Maximum iterations (50) exceeded for all HVAC loops, at RUN PERIOD 1, 01/17 18:38 - 18:45
   **   ~~~   ** The solution for one or more of the Air Loop HVAC systems did not appear to converge
   ** Warning ** SimHVAC: Maximum iterations (50) exceeded for all HVAC loops, at RUN PERIOD 1, 01/17 18:45 - 19:00
   **   ~~~   ** The solution for one or more of the Air Loop HVAC systems did not appear to converge
   ** Warning ** SimHVAC: Maximum iterations (50) exceeded for all HVAC loops, at RUN PERIOD 1, 01/18 08:00 - 08:15
   **   ~~~   ** The solution for one or more of the Air Loop HVAC systems did not appear to converge
   ** Warning ** SimHVAC: Maximum iterations (50) exceeded for all HVAC loops, at RUN PERIOD 1, 01/18 08:00 - 08:05
   **   ~~~   ** The solution for one or more of the Air Loop HVAC systems did not appear to converge
   ** Warning ** SimHVAC: Maximum iterations (50) exceeded for all HVAC loops, at RUN PERIOD 1, 01/18 08:05 - 08:10
   **   ~~~   ** The solution for one or more of the Air Loop HVAC systems did not appear to converge
   ** Warning ** CoolingTower:VariableSpeed "CENTRIFUGAL FAN CYCLING OPEN COOLING TOWER 40.2 GPM/HP" - Tower range temperature is outside model boundaries at 0.48.
   **   ~~~   **  ...Valid range = 0.50 to 22.22. Occurrence info = RUN PERIOD 1, 01/28 21:30 - 21:33
   **   ~~~   **  ...Tower range temperature passed to the model = 0.48087
   **   ~~~   **  ...Range temperatures outside model boundaries may not adversely affect tower performance.
   **   ~~~   **  ...This is not an unexpected occurrence when simulating actual conditions.
   ** Warning ** CoolingTower:VariableSpeed "CENTRIFUGAL FAN CYCLING OPEN COOLING TOWER 40.2 GPM/HP" - Inlet air wet-bulb temperature is outside model boundaries at 32.65.
   **   ~~~   **  ...Valid range = -34.40 to 32.00. Occurrence info = RUN PERIOD 1, 06/21 18:45 - 18:49
   **   ~~~   **  ...Inlet air wet-bulb temperature passed to the model = 32.000000
   **   ~~~   **  ...Wet-bulb temperatures outside model boundaries may not adversely affect tower performance.
   ** Warning ** CoolingTower:VariableSpeed "CENTRIFUGAL FAN CYCLING OPEN COOLING TOWER 40.2 GPM/HP" - Inlet air wet-bulb temperature is outside model boundaries at 32.65.
   **   ~~~   **  ...Valid range = -34.40 to 32.00. Occurrence info = RUN PERIOD 1, 06/21 18:49 - 18:52
   **   ~~~   **  ...Inlet air wet-bulb temperature passed to the model = 32.000000
   **   ~~~   **  ...Wet-bulb temperatures outside model boundaries may not adversely affect tower performance.
   ** Warning ** CoolingTower:VariableSpeed "CENTRIFUGAL FAN CYCLING OPEN COOLING TOWER 40.2 GPM/HP" - Inlet air wet-bulb temperature is outside model boundaries at 32.65.
   **   ~~~   **  ...Valid range = -34.40 to 32.00. Occurrence info = RUN PERIOD 1, 06/21 18:53 - 18:56
   **   ~~~   **  ...Inlet air wet-bulb temperature passed to the model = 32.000000
   **   ~~~   **  ...Wet-bulb temperatures outside model boundaries may not adversely affect tower performance.
   ** Warning ** CoolingTower:VariableSpeed "CENTRIFUGAL FAN CYCLING OPEN COOLING TOWER 40.2 GPM/HP" - Inlet air wet-bulb temperature is outside model boundaries at 32.65.
   **   ~~~   **  ...Valid range = -34.40 to 32.00. Occurrence info = RUN PERIOD 1, 06/21 18:56 - 19:00
   **   ~~~   **  ...Inlet air wet-bulb temperature passed to the model = 32.000000
   **   ~~~   **  ...Wet-bulb temperatures outside model boundaries may not adversely affect tower performance.
   ** Warning ** CoolingTower:VariableSpeed "CENTRIFUGAL FAN CYCLING OPEN COOLING TOWER 40.2 GPM/HP" - Inlet air wet-bulb temperature is outside model boundaries at 32.41.
   **   ~~~   **  ...Valid range = -34.40 to 32.00. Occurrence info = RUN PERIOD 1, 06/21 19:00 - 19:04
   **   ~~~   **  ...Inlet air wet-bulb temperature passed to the model = 32.000000
   **   ~~~   **  ...Wet-bulb temperatures outside model boundaries may not adversely affect tower performance.
   ************* Simulation Error Summary *************
   ************* There are 7 unused schedules in input.
   ************* There are 7 unused week schedules in input.
   ************* There are 8 unused day schedules in input.
   ************* Use Output:Diagnostics,DisplayUnusedSchedules; to see them.
   *************
   ************* ===== Recurring Error Summary =====
   ************* The following recurring error messages occurred.
   *************
   *************  ** Warning ** SimHVAC: Exceeding Maximum iterations for all HVAC loops, during RUN PERIOD 1 continues
   *************  **   ~~~   **   This error occurred 4848 total times;
   *************  **   ~~~   **   during Warmup 0 times;
   *************  **   ~~~   **   during Sizing 0 times.
   *************
   *************  ** Warning ** CoolingTower:VariableSpeed "CENTRIFUGAL FAN CYCLING OPEN COOLING TOWER 40.2 GPM/HP" - Tower range temperature is out of range error continues...
   *************  **   ~~~   **   This error occurred 20 total times;
   *************  **   ~~~   **   during Warmup 0 times;
   *************  **   ~~~   **   during Sizing 0 times.
   *************  **   ~~~   **   Max=0.495056  Min=0.018296
   *************
   *************  ** Warning ** CoolingTower:VariableSpeed "CENTRIFUGAL FAN CYCLING OPEN COOLING TOWER 40.2 GPM/HP" - Inlet air wet-bulb temperature is out of range error continues...
   *************  **   ~~~   **   This error occurred 28 total times;
   *************  **   ~~~   **   during Warmup 0 times;
   *************  **   ~~~   **   during Sizing 0 times.
   *************  **   ~~~   **   Max=33.173065  Min=32.029116
   *************
   ************* EnergyPlus Warmup Error Summary. During Warmup: 0 Warning; 0 Severe Errors.
   ************* EnergyPlus Sizing Error Summary. During Sizing: 2 Warning; 0 Severe Errors.
   ************* EnergyPlus Completed Successfully-- 4918 Warning; 0 Severe Errors; Elapsed Time=00hr 23min 56.44sec
