Program Version,EnergyPlus, Version 23.1.0-87ed9199d4, YMD=2026.05.13 19:56,
   ************* Beginning Zone Sizing Calculations
   ** Warning ** Calculated design heating load for zone=DATACENTER ZN is zero.
   **   ~~~   ** Check Sizing:Zone and ZoneControl:Thermostat inputs.
   ************* Beginning System Sizing Calculations
   ************* Beginning Plant Sizing Calculations
   ************* Testing Individual Branch Integrity
   ************* All Branches passed integrity testing
   ************* Testing Individual Supply Air Path Integrity
   ************* All Supply Air Paths passed integrity testing
   ************* Testing Individual Return Air Path Integrity
   ************* All Return Air Paths passed integrity testing
   ************* No node connection errors were found.
   ************* Beginning Simulation
   ** Warning ** CoolingTower:VariableSpeed "CENTRIFUGAL FAN CYCLING OPEN COOLING TOWER 40.2 GPM/HP" - Tower range temperature is outside model boundaries at 0.37.
   **   ~~~   **  ...Valid range = 0.50 to 22.22. Occurrence info = RUN PERIOD 1, 01/04 10:15 - 10:17
   **   ~~~   **  ...Tower range temperature passed to the model = 0.36837
   **   ~~~   **  ...Range temperatures outside model boundaries may not adversely affect tower performance.
   **   ~~~   **  ...This is not an unexpected occurrence when simulating actual conditions.
   ** Warning ** SimHVAC: Maximum iterations (50) exceeded for all HVAC loops, at RUN PERIOD 1, 04/05 13:00 - 13:15
   **   ~~~   ** The solution for one or more of the Air Loop HVAC systems did not appear to converge
   **   ~~~   ** ...use Output:Diagnostics,DisplayExtraWarnings; to show more details on each max iteration exceeded.
   ** Warning ** SimHVAC: Maximum iterations (50) exceeded for all HVAC loops, at RUN PERIOD 1, 04/05 13:00 - 13:05
   **   ~~~   ** The solution for one or more of the Air Loop HVAC systems did not appear to converge
   ** Warning ** SimHVAC: Maximum iterations (50) exceeded for all HVAC loops, at RUN PERIOD 1, 04/05 13:05 - 13:10
   **   ~~~   ** The solution for one or more of the Air Loop HVAC systems did not appear to converge
   ** Warning ** SimHVAC: Maximum iterations (50) exceeded for all HVAC loops, at RUN PERIOD 1, 04/05 13:10 - 13:15
   **   ~~~   ** The solution for one or more of the Air Loop HVAC systems did not appear to converge
   ** Warning ** SimHVAC: Maximum iterations (50) exceeded for all HVAC loops, at RUN PERIOD 1, 04/05 20:15 - 20:30
   **   ~~~   ** The solution for one or more of the Air Loop HVAC systems did not appear to converge
   ** Warning ** SimHVAC: Maximum iterations (50) exceeded for all HVAC loops, at RUN PERIOD 1, 04/05 20:15 - 20:20
   **   ~~~   ** The solution for one or more of the Air Loop HVAC systems did not appear to converge
   ** Warning ** SimHVAC: Maximum iterations (50) exceeded for all HVAC loops, at RUN PERIOD 1, 04/05 20:20 - 20:25
   **   ~~~   ** The solution for one or more of the Air Loop HVAC systems did not appear to converge
   ** Warning ** SimHVAC: Maximum iterations (50) exceeded for all HVAC loops, at RUN PERIOD 1, 04/05 20:25 - 20:30
   **   ~~~   ** The solution for one or more of the Air Loop HVAC systems did not appear to converge
   ** Warning ** SimHVAC: Maximum iterations (50) exceeded for all HVAC loops, at RUN PERIOD 1, 04/05 20:30 - 20:45
   **   ~~~   ** The solution for one or more of the Air Loop HVAC systems did not appear to converge
   ** Warning ** SimHVAC: Maximum iterations (50) exceeded for all HVAC loops, at RUN PERIOD 1, 04/05 20:30 - 20:38
   **   ~~~   ** The solution for one or more of the Air Loop HVAC systems did not appear to converge
   ** Warning ** SimHVAC: Maximum iterations (50) exceeded for all HVAC loops, at RUN PERIOD 1, 04/05 20:38 - 20:45
   **   ~~~   ** The solution for one or more of the Air Loop HVAC systems did not appear to converge
   ** Warning ** SimHVAC: Maximum iterations (50) exceeded for all HVAC loops, at RUN PERIOD 1, 04/05 20:45 - 21:00
   **   ~~~   ** The solution for one or more of the Air Loop HVAC systems did not appear to converge
   ** Warning ** SimHVAC: Maximum iterations (50) exceeded for all HVAC loops, at RUN PERIOD 1, 04/05 21:00 - 21:15
   **   ~~~   ** The solution for one or more of the Air Loop HVAC systems did not appear to converge
   ** Warning ** SimHVAC: Maximum iterations (50) exceeded for all HVAC loops, at RUN PERIOD 1, 04/05 21:15 - 21:30
   **   ~~~   ** The solution for one or more of the Air Loop HVAC systems did not appear to converge
   ** Warning ** CoolingTower:VariableSpeed "CENTRIFUGAL FAN CYCLING OPEN COOLING TOWER 40.2 GPM/HP" - Cooling tower air flow rate ratio calculation failed
   **   ~~~   ** ...with conditions as Twb = 12.09, Trange =  1.37, Tapproach =  4.44, and water flow rate ratio =  1.61
   **   ~~~   ** ...a solution could not be found within the valid range of air flow rate ratios
   **   ~~~   **  ...Valid air flow rate ratio range =  0.20 to 1.0.
   **   ~~~   **  Environment=RUN PERIOD 1, at Simulation time=10/29 06:35 - 06:40
   **   ~~~   ** ...Consider modifying the design approach or design range temperature for this tower.
   ************* Simulation Error Summary *************
   ************* There are 7 unused schedules in input.
   ************* There are 7 unused week schedules in input.
   ************* There are 8 unused day schedules in input.
   ************* Use Output:Diagnostics,DisplayUnusedSchedules; to see them.
   *************
   ************* ===== Recurring Error Summary =====
   ************* The following recurring error messages occurred.
   *************
   *************  ** Warning ** CoolingTower:VariableSpeed "CENTRIFUGAL FAN CYCLING OPEN COOLING TOWER 40.2 GPM/HP" - Tower range temperature is out of range error continues...
   *************  **   ~~~   **   This error occurred 21 total times;
   *************  **   ~~~   **   during Warmup 0 times;
   *************  **   ~~~   **   during Sizing 0 times.
   *************  **   ~~~   **   Max=0.494574  Min=0.019042
   *************
   *************  ** Warning ** SimHVAC: Exceeding Maximum iterations for all HVAC loops, during RUN PERIOD 1 continues
   *************  **   ~~~   **   This error occurred 4678 total times;
   *************  **   ~~~   **   during Warmup 0 times;
   *************  **   ~~~   **   during Sizing 0 times.
   *************
   ************* EnergyPlus Warmup Error Summary. During Warmup: 0 Warning; 0 Severe Errors.
   ************* EnergyPlus Sizing Error Summary. During Sizing: 1 Warning; 0 Severe Errors.
   ************* EnergyPlus Completed Successfully-- 4716 Warning; 0 Severe Errors; Elapsed Time=00hr 24min 14.89sec
